Circuit: * C:\Users\oscar\Coding Projects\CSULB\CECS 311 SPRING 2020\Lab 2\Schematics\Main.asc

.OP point found by inspection.

Date: Tue Mar 10 18:49:51 2020
Total elapsed time: 0.318 seconds.

tnom = 27
temp = 27
method = modified trap
totiter = 3755
traniter = 3755
tranpoints = 1645
accept = 1436
rejected = 209
matrix size = 37
fillins = 70
solver = Normal
Matrix Compiler1: 10.4 KB object code size  5.2/3.0/[1.6]
Matrix Compiler2: 5.13 KB object code size  1.6/2.0/[0.9]


