Circuit: * C:\Users\oscar\Coding Projects\CSULB\CECS 211 FALL 2019\Lab 7\Circuits\LR Circuit.asc

.OP point found by inspection.

Date: Sat Nov 23 17:29:24 2019
Total elapsed time: 0.362 seconds.

tnom = 27
temp = 27
method = modified trap
totiter = 2214
traniter = 2214
tranpoints = 1108
accept = 1106
rejected = 2
matrix size = 4
fillins = 0
solver = Normal
Matrix Compiler1:       6 opcodes  0.2/[0.1]/0.1
Matrix Compiler2: 248 bytes object code size  0.1/0.1/[0.1]


