Circuit: * C:\Users\oscar\Coding Projects\CSULB\CECS 211 FALL 2019\Lab 6\Schematics\Lab 6.asc

Direct Newton iteration for .op point succeeded.

Date: Thu Oct 24 14:04:34 2019
Total elapsed time: 0.067 seconds.

tnom = 27
temp = 27
method = modified trap
totiter = 2091
traniter = 2088
tranpoints = 1045
accept = 1045
rejected = 0
matrix size = 5
fillins = 0
solver = Normal
Matrix Compiler1: 150 bytes object code size  0.2/0.1/[0.1]
Matrix Compiler2: 329 bytes object code size  0.2/0.2/[0.2]


