Circuit: * C:\Users\oscar\Coding Projects\CSULB\CECS 211 FALL 2019\Lab 5\Lab 5.asc

Direct Newton iteration for .op point succeeded.

Date: Tue Oct 15 13:52:02 2019
Total elapsed time: 0.075 seconds.

tnom = 27
temp = 27
method = modified trap
totiter = 2091
traniter = 2088
tranpoints = 1045
accept = 1045
rejected = 0
matrix size = 4
fillins = 0
solver = Normal
Matrix Compiler1: 100 bytes object code size  0.1/0.1/[0.1]
Matrix Compiler2: 248 bytes object code size  0.1/0.1/[0.1]


