Circuit: * C:\Users\oscar\Coding Projects\CSULB\CECS 211 FALL 2019\Lab 5\Schematic Files\Thevenin.asc

Direct Newton iteration for .op point succeeded.

Date: Fri Oct 18 17:17:34 2019
Total elapsed time: 0.206 seconds.

tnom = 27
temp = 27
method = modified trap
totiter = 2091
traniter = 2088
tranpoints = 1045
accept = 1045
rejected = 0
matrix size = 3
fillins = 0
solver = Normal
Matrix Compiler1: 50 bytes object code size  0.2/0.2/[0.2]
Matrix Compiler2: off  [0.2]/0.2/0.2


